Circuit: * C:\Users\danie\Documents\Projekte\KT88-Amp\boards\Netzteil\12V_Supply_V2\Draft1.asc

.OP point found by inspection.

Date: Sat Oct 26 02:10:14 2019
Total elapsed time: 0.248 seconds.

tnom = 27
temp = 27
method = modified trap
totiter = 10866
traniter = 10866
tranpoints = 3292
accept = 2398
rejected = 894
matrix size = 34
fillins = 54
solver = Normal
Matrix Compiler1: 7.42 KB object code size  3.1/2.8/[1.5]
Matrix Compiler2: 4.22 KB object code size  1.9/2.3/[1.2]

