Circuit: * C:\Users\danie\Documents\Projekte\KT88-Amp\boards\Netzteil\12V_6V3_Delay\Delay.asc

C1: Increased Cpar to 1e-012
Direct Newton iteration for .op point succeeded.

Date: Fri Apr 15 00:29:31 2022
Total elapsed time: 862.151 seconds.

tnom = 27
temp = 27
method = modified trap
totiter = 10004751
traniter = 10004727
tranpoints = 4995598
accept = 2499345
rejected = 2496253
matrix size = 308
fillins = 193
solver = Normal
Thread vector: 39.0/30.6[4] 17.9/12.3[4] 28.4/28.3[1] 3.8/8.5[1]  2592/500
Matrix Compiler1: 18.21 KB object code size  15.5/11.7/[6.3]
Matrix Compiler2: off  [7.0]/9.7/10.6

