Circuit: * C:\Users\danie\Documents\Projekte\KT88-Amp\boards\Netzteil\12V_6V3_Delay\Delay.asc

C1: Increased Cpar to 1e-012
Limiting rise time of source v1 to 0.2
Limiting fall time of source v1 to 0.2
Direct Newton iteration for .op point succeeded.

Date: Thu May 02 15:37:39 2024
Total elapsed time: 1.511 seconds.

tnom = 27
temp = 27
method = Gear
totiter = 21954
traniter = 21930
tranpoints = 5934
accept = 4529
rejected = 1405
matrix size = 310
fillins = 194
solver = Normal
Thread vector: 39.1/19.5[2] 9.2/7.0[2] 41.4/25.5[2] 3.6/32.1[1]  2592/500
Matrix Compiler1: 18.25 KB object code size  31.1/20.9/[13.2]
Matrix Compiler2: 23.42 KB object code size  14.1/23.6/[10.7]

